 Abaqus/Standard 2021                  DATE 13-Mar-2024 TIME 10:40:44
 SUMMARY OF JOB INFORMATION:
 STEP  INC ATT SEVERE EQUIL TOTAL  TOTAL      STEP       INC OF       DOF    IF
               DISCON ITERS ITERS  TIME/    TIME/LPF    TIME/LPF    MONITOR RIKS
               ITERS               FREQ
   1     1   1     0     1     1  0.0100     0.0100     0.01000   
   1     2   1     0     1     1  0.0200     0.0200     0.01000   
   1     3   1     0     1     1  0.0350     0.0350     0.01500   
   1     4   1     0     1     1  0.0575     0.0575     0.02250   
   1     5   1     0     1     1  0.0912     0.0912     0.03375   
   1     6   1     0     1     1  0.142      0.142      0.05063   
   1     7   1     0     1     1  0.218      0.218      0.07594   
   1     8   1     0     1     1  0.332      0.332      0.1139    
   1     9   1     0     1     1  0.503      0.503      0.1709    
   1    10   1     0     2     2  0.759      0.759      0.2563    
   1    11   1     0     2     2  1.14       1.14       0.3844    
   1    12   1     0     1     1  1.72       1.72       0.5767    
   1    13   1     0     1     1  2.58       2.58       0.8650    
   1    14   1     0     2     2  3.88       3.88       1.297     
   1    15   1     0     2     2  5.83       5.83       1.946     
   1    16   1     0     2     2  8.75       8.75       2.919     
   1    17   1     0     2     2  10.0       10.0       1.252     
                          
 THE ANALYSIS HAS COMPLETED SUCCESSFULLY
